Circuit: * C:\Users\nperr\Documents\School\Classes\Graduate\Current\ECE2250\Project\SPICE\555Timer.asc

WARNING: Less than two connections to node VCC.  This node is used by R3.
Direct Newton iteration for .op point succeeded.

Date: Tue Feb 19 10:04:11 2019
Total elapsed time: 0.080 seconds.

tnom = 27
temp = 27
method = modified trap
totiter = 2252
traniter = 2244
tranpoints = 1082
accept = 1073
rejected = 9
matrix size = 15
fillins = 0
solver = Alternate
Matrix Compiler1: 478 bytes object code size  0.1/0.1/[0.1]
Matrix Compiler2: 969 bytes object code size  0.1/0.2/[0.1]

