Circuit: * C:\Users\nperr\Documents\Classes\Current\ECE2250\Project\SPICE\boost_converter.asc

Limiting rise time of source v2 to 5e-007
Limiting fall time of source v2 to 5e-007
.OP point found by inspection.

Date: Tue Mar 26 12:19:22 2019
Total elapsed time: 9.898 seconds.

tnom = 27
temp = 27
method = modified trap
totiter = 4414917
traniter = 4414917
tranpoints = 1219074
accept = 896100
rejected = 322974
matrix size = 14
fillins = 4
solver = Normal
Matrix Compiler1: 964 bytes object code size  0.2/0.1/[0.1]
Matrix Compiler2: 1.14 KB object code size  0.1/0.2/[0.1]

