Circuit: * C:\Users\nperr\Documents\Classes\Current\ECE2250\Project\SPICE\buck_converter.asc

Limiting rise time of source v2 to 5e-007
Limiting fall time of source v2 to 5e-007
.OP point found by inspection.

Date: Tue Mar 26 12:34:54 2019
Total elapsed time: 10.306 seconds.

tnom = 27
temp = 27
method = modified trap
totiter = 4647108
traniter = 4647108
tranpoints = 2165001
accept = 1735974
rejected = 429027
matrix size = 6
fillins = 0
solver = Normal
Matrix Compiler1: 218 bytes object code size  0.1/0.1/[0.0]
Matrix Compiler2: 396 bytes object code size  0.0/0.0/[0.0]

