Circuit: * C:\Users\nperr\Documents\Classes\Current\ECE 2250\Project\SPICE\Draft1.asc

Error on line 2 : v1 n001 0 5 v
	 Unknown parameter "v"
Limiting rise time of source v2 to 5e-007
Limiting fall time of source v2 to 5e-007
.OP point found by inspection.

Date: Thu Feb 21 13:22:11 2019
Total elapsed time: 2.546 seconds.

tnom = 27
temp = 27
method = modified trap
totiter = 1631386
traniter = 1631386
tranpoints = 501914
accept = 376417
rejected = 125497
matrix size = 11
fillins = 0
solver = Normal
Matrix Compiler1: 512 bytes object code size  0.1/0.1/[0.1]
Matrix Compiler2: 807 bytes object code size  0.1/0.1/[0.1]

